/*--------------------------------*- C++ -*----------------------------------*\
  =========                 |
  \\      /  F ield         | OpenFOAM: The Open Source CFD Toolbox
   \\    /   O peration     | Website:  https://openfoam.org
    \\  /    A nd           | Version:  10
     \\/     M anipulation  |
\*---------------------------------------------------------------------------*/
FoamFile
{
    format      ascii;
    class       dictionary;
    object      topoSetDict;
}

// * * * * * * * * * * * * * * * * * * * * * * * * * * * * * * * * * * * * * //

actions
(
    {
        name    baffleFaceSet;
        type    faceSet;
        action  new;
        source  boxToFace;
        box     (-0.1 -0.1 -0.000001)(0.1 0.1 0.000001);
    }

    {
        name    baffleFaces;
        type    faceZoneSet;
        action  new;
        source  setToFaceZone;
        faceSet baffleFaceSet;
    }
);

// ************************************************************************* //
