/*--------------------------------*- C++ -*----------------------------------*\
  =========                 |
  \\      /  F ield         | OpenFOAM: The Open Source CFD Toolbox
   \\    /   O peration     | Website:  https://openfoam.org
    \\  /    A nd           | Version:  9
     \\/     M anipulation  |
\*---------------------------------------------------------------------------*/
FoamFile
{
    format      ascii;
    class       dictionary;
    location    "system";
    object      controlDict;
}
// * * * * * * * * * * * * * * * * * * * * * * * * * * * * * * * * * * * * * //

application     foamRun;

solver          incompressibleFluid;

startFrom       latestTime;

stopAt          endTime;

deltaT 0.0002;

endTime 0.051;

writeInterval 0.01;

adjustTimeStep  yes;

//maxCo           0.5;

//maxDeltaT       0.01;

writeControl    adjustableRunTime;

purgeWrite      0;

writeFormat     ascii;

writePrecision  3;

writeCompression off;

timeFormat      general;

timePrecision   3;

runTimeModifiable yes;

libs ("/home/nchowlett/OpenFOAM/mouthInletVel.so");

functions
{
    // enable run-time data monitoring
    //#includeFunc  probes

    /*clouds
    {
        type            fvModel;
        #includeModel clouds(name=fvModel)
    }*/
}

// ************************************************************************* //
