/*--------------------------------*- C++ -*----------------------------------*\
  =========                 |
  \\      /  F ield         | OpenFOAM: The Open Source CFD Toolbox
   \\    /   O peration     | Website:  https://openfoam.org
    \\  /    A nd           | Version:  9
     \\/     M anipulation  |
\*---------------------------------------------------------------------------*/
FoamFile
{
    format      ascii;
    class       dictionary;
    location    "system";
    object      fvSolution;
}
// * * * * * * * * * * * * * * * * * * * * * * * * * * * * * * * * * * * * * //

solvers
{
    p
    {
        solver          GAMG;
        smoother        GaussSeidel;
        tolerance       0.001;
    }
    pFinal
    {
        $p;
        smoother        DICGaussSeidel;
        tolerance       1e-4;
    }
    Final
    {
        solver          smoothSolver;
        smoother        symGaussSeidel;
        tolerance       1e-4;
    }
    kFinal
    {
        solver          smoothSolver;
        smoother        symGaussSeidel;
        tolerance       1e-4;
    }
    nuTildaFinal
    {
        solver          smoothSolver;
        smoother        symGaussSeidel;
        tolerance       1e-4;
    }
}

PIMPLE
{
    nNonOrthogonalCorrectors    1; // non-orthogonal cells: ~ 80 degrees = 2+
    nCorrectors                 1;
}

// ************************************************************************* //
