/*--------------------------------*- C++ -*----------------------------------*\
  =========                 |
  \\      /  F ield         | OpenFOAM: The Open Source CFD Toolbox
   \\    /   O peration     | Website:  https://openfoam.org
    \\  /    A nd           | Version:  10
     \\/     M anipulation  |
\*---------------------------------------------------------------------------*/
FoamFile
{
    format      ascii;
    class       volVectorField;
    location    "0";
    object      U;
}
// * * * * * * * * * * * * * * * * * * * * * * * * * * * * * * * * * * * * * //

dimensions      [0 1 -1 0 0 0 0];

internalField   uniform (0 0 0);

boundaryField
{
    empty
    {
        type            empty;
    }
    mouth
    {
        type            turbulentInlet;
        fluctuationScale (0.01 0.01 0.2);
        referenceField  uniform (0 0 10);
        alpha           0.1;
        value           uniform (0 0 10);
    }
    wall
    {
        type            noSlip;
    }
    atmos
    {
        type            zeroGradient;
    }
    baffle0
    {
        type            noSlip;
    }
    baffle1
    {
        type            noSlip;
    }
}


// ************************************************************************* //
