/*--------------------------------*- C++ -*----------------------------------*\
  =========                 |
  \\      /  F ield         | OpenFOAM: The Open Source CFD Toolbox
   \\    /   O peration     | Website:  https://openfoam.org
    \\  /    A nd           | Version:  12
     \\/     M anipulation  |
\*---------------------------------------------------------------------------*/
FoamFile
{
    format      ascii;
    class       surfaceLabelField;
    location    "constant/fvMesh";
    object      polyFaces;
}
// * * * * * * * * * * * * * * * * * * * * * * * * * * * * * * * * * * * * * //

dimensions      [0 0 0 0 0 0 0];

internalField   uniform -1;

boundaryField
{
    iFaceUpstr
    {
        type            polyFaces;
    }
    mouth
    {
        type            polyFaces;
    }
    wall
    {
        type            polyFaces;
    }
    atmos
    {
        type            polyFaces;
    }
    atmosEnd
    {
        type            polyFaces;
    }
    iFaceDownstream
    {
        type            polyFaces;
    }
    iFaceDownCube
    {
        type            polyFaces;
    }
    iFaceCube
    {
        type            polyFaces;
    }
    person
    {
        type            polyFaces;
    }
    nostrils
    {
        type            polyFaces;
    }
    nonConformalCyclic_on_iFaceCube
    {
        type            nonConformalPolyFaces;
        patchType       nonConformalCyclic;
        size            32794;
        value           nonuniform List<label> 
32794
(
1301920
1301920
1301920
1301920
1301920
1301921
1301921
1301921
1301921
1301921
1301921
1301921
1301922
1301922
1301922
1301922
1301923
1301923
1301923
1301923
1301923
1301924
1301924
1301924
1301924
1301924
1301924
1301924
1301925
1301925
1301925
1301925
1301925
1301925
1301926
1301926
1301926
1301926
1301927
1301927
1301927
1301927
1301927
1301927
1301928
1301928
1301928
1301928
1301928
1301928
1301929
1301929
1301929
1301929
1301930
1301930
1301930
1301931
1301931
1301931
1301931
1301931
1301931
1301932
1301932
1301932
1301933
1301933
1301933
1301933
1301933
1301933
1301934
1301934
1301934
1301934
1301935
1301935
1301935
1301935
1301936
1301936
1301936
1301936
1301936
1301936
1301937
1301937
1301937
1301937
1301938
1301938
1301938
1301938
1301939
1301939
1301939
1301940
1301940
1301940
1301941
1301941
1301941
1301941
1301941
1301941
1301942
1301942
1301942
1301942
1301942
1301942
1301943
1301943
1301943
1301943
1301943
1301943
1301944
1301944
1301944
1301944
1301944
1301945
1301945
1301945
1301945
1301945
1301946
1301946
1301946
1301946
1301946
1301947
1301947
1301947
1301947
1301947
1301948
1301948
1301948
1301948
1301948
1301948
1301949
1301949
1301949
1301949
1301949
1301949
1301950
1301950
1301950
1301950
1301950
1301950
1301951
1301951
1301951
1301951
1301951
1301951
1301951
1301952
1301952
1301952
1301952
1301953
1301953
1301953
1301953
1301953
1301953
1301954
1301954
1301954
1301954
1301954
1301955
1301955
1301955
1301955
1301955
1301956
1301956
1301956
1301956
1301956
1301956
1301957
1301957
1301957
1301957
1301958
1301958
1301958
1301958
1301958
1301958
1301958
1301959
1301959
1301959
1301960
1301960
1301960
1301960
1301961
1301961
1301961
1301961
1301961
1301961
1301962
1301962
1301962
1301962
1301962
1301962
1301963
1301963
1301963
1301963
1301963
1301963
1301964
1301964
1301964
1301964
1301965
1301965
1301965
1301965
1301966
1301966
1301966
1301966
1301966
1301966
1301967
1301967
1301967
1301968
1301968
1301968
1301968
1301968
1301968
1301969
1301969
1301969
1301969
1301969
1301970
1301970
1301970
1301970
1301970
1301970
1301971
1301971
1301971
1301971
1301971
1301971
1301972
1301972
1301972
1301972
1301972
1301972
1301973
1301973
1301973
1301973
1301974
1301974
1301974
1301974
1301974
1301975
1301975
1301975
1301975
1301975
1301975
1301976
1301976
1301976
1301976
1301977
1301977
1301977
1301977
1301977
1301977
1301978
1301978
1301978
1301978
1301978
1301978
1301979
1301979
1301979
1301979
1301979
1301980
1301980
1301980
1301980
1301980
1301980
1301981
1301981
1301981
1301981
1301981
1301981
1301982
1301982
1301982
1301983
1301983
1301983
1301983
1301983
1301984
1301984
1301984
1301984
1301984
1301984
1301985
1301985
1301985
1301985
1301986
1301986
1301986
1301986
1301987
1301987
1301987
1301987
1301987
1301987
1301988
1301988
1301988
1301988
1301988
1301988
1301989
1301989
1301989
1301990
1301990
1301990
1301991
1301991
1301991
1301992
1301992
1301992
1301993
1301993
1301993
1301993
1301993
1301994
1301994
1301994
1301994
1301994
1301994
1301995
1301995
1301995
1301995
1301995
1301996
1301996
1301996
1301996
1301996
1301996
1301997
1301997
1301997
1301998
1301998
1301998
1301999
1301999
1301999
1301999
1302000
1302000
1302000
1302000
1302001
1302001
1302001
1302001
1302001
1302001
1302002
1302002
1302002
1302002
1302002
1302003
1302003
1302003
1302003
1302003
1302003
1302004
1302004
1302004
1302004
1302004
1302004
1302005
1302005
1302005
1302005
1302005
1302006
1302006
1302006
1302006
1302006
1302006
1302007
1302007
1302007
1302007
1302007
1302007
1302008
1302008
1302008
1302008
1302009
1302009
1302009
1302010
1302010
1302010
1302011
1302011
1302011
1302011
1302012
1302012
1302012
1302012
1302013
1302013
1302013
1302013
1302014
1302014
1302014
1302014
1302014
1302014
1302015
1302015
1302015
1302015
1302015
1302015
1302016
1302016
1302016
1302016
1302016
1302016
1302017
1302017
1302017
1302018
1302018
1302018
1302019
1302019
1302019
1302020
1302020
1302020
1302021
1302021
1302021
1302021
1302021
1302021
1302022
1302022
1302022
1302022
1302022
1302023
1302023
1302023
1302023
1302023
1302024
1302024
1302024
1302024
1302024
1302024
1302025
1302025
1302025
1302025
1302026
1302026
1302026
1302026
1302026
1302026
1302027
1302027
1302027
1302027
1302028
1302028
1302028
1302028
1302028
1302028
1302029
1302029
1302029
1302030
1302030
1302030
1302030
1302030
1302031
1302031
1302031
1302032
1302032
1302032
1302032
1302032
1302033
1302033
1302033
1302033
1302033
1302033
1302034
1302034
1302034
1302034
1302035
1302035
1302035
1302035
1302035
1302035
1302036
1302036
1302036
1302036
1302036
1302036
1302036
1302037
1302037
1302037
1302038
1302038
1302038
1302038
1302038
1302038
1302039
1302039
1302039
1302039
1302040
1302040
1302040
1302040
1302040
1302040
1302041
1302041
1302041
1302041
1302041
1302041
1302042
1302042
1302042
1302042
1302043
1302043
1302043
1302043
1302043
1302043
1302044
1302044
1302044
1302044
1302045
1302045
1302045
1302045
1302045
1302045
1302046
1302046
1302046
1302046
1302046
1302047
1302047
1302047
1302047
1302047
1302047
1302048
1302048
1302048
1302048
1302048
1302049
1302049
1302049
1302049
1302049
1302050
1302050
1302050
1302050
1302050
1302050
1302051
1302051
1302051
1302051
1302051
1302051
1302052
1302052
1302052
1302052
1302052
1302052
1302053
1302053
1302053
1302053
1302053
1302054
1302054
1302054
1302054
1302054
1302054
1302055
1302055
1302055
1302055
1302055
1302055
1302056
1302056
1302056
1302056
1302056
1302056
1302057
1302057
1302057
1302057
1302058
1302058
1302058
1302058
1302058
1302058
1302059
1302059
1302059
1302059
1302059
1302059
1302060
1302060
1302060
1302060
1302060
1302060
1302060
1302061
1302061
1302061
1302062
1302062
1302062
1302062
1302063
1302063
1302063
1302063
1302064
1302064
1302064
1302064
1302064
1302064
1302065
1302065
1302065
1302065
1302065
1302065
1302066
1302066
1302066
1302066
1302067
1302067
1302067
1302067
1302067
1302067
1302068
1302068
1302068
1302068
1302068
1302068
1302069
1302069
1302069
1302070
1302070
1302070
1302070
1302070
1302070
1302071
1302071
1302071
1302072
1302072
1302072
1302072
1302072
1302072
1302072
1302073
1302073
1302073
1302073
1302073
1302073
1302074
1302074
1302074
1302074
1302074
1302074
1302075
1302075
1302075
1302075
1302075
1302075
1302076
1302076
1302076
1302076
1302076
1302076
1302077
1302077
1302077
1302077
1302077
1302077
1302078
1302078
1302078
1302078
1302079
1302079
1302079
1302079
1302079
1302079
1302080
1302080
1302080
1302080
1302080
1302080
1302081
1302081
1302081
1302081
1302081
1302082
1302082
1302082
1302082
1302082
1302082
1302083
1302083
1302083
1302083
1302083
1302083
1302084
1302084
1302084
1302084
1302084
1302084
1302085
1302085
1302085
1302085
1302085
1302086
1302086
1302086
1302086
1302086
1302086
1302087
1302087
1302087
1302087
1302087
1302087
1302088
1302088
1302088
1302088
1302088
1302088
1302088
1302089
1302089
1302089
1302089
1302089
1302089
1302090
1302090
1302090
1302090
1302090
1302090
1302091
1302091
1302091
1302091
1302091
1302091
1302092
1302092
1302092
1302092
1302092
1302093
1302093
1302093
1302093
1302093
1302093
1302094
1302094
1302094
1302094
1302094
1302094
1302094
1302095
1302095
1302095
1302095
1302095
1302096
1302096
1302096
1302096
1302096
1302097
1302097
1302097
1302097
1302097
1302097
1302098
1302098
1302098
1302098
1302099
1302099
1302099
1302099
1302099
1302100
1302100
1302100
1302100
1302100
1302101
1302101
1302101
1302101
1302101
1302101
1302102
1302102
1302102
1302102
1302102
1302102
1302103
1302103
1302103
1302103
1302104
1302104
1302104
1302104
1302104
1302104
1302105
1302105
1302105
1302105
1302105
1302105
1302105
1302106
1302106
1302106
1302106
1302106
1302107
1302107
1302107
1302107
1302108
1302108
1302108
1302108
1302108
1302109
1302109
1302109
1302109
1302109
1302109
1302109
1302110
1302110
1302110
1302110
1302110
1302111
1302111
1302111
1302111
1302111
1302111
1302112
1302112
1302112
1302112
1302112
1302113
1302113
1302113
1302113
1302113
1302113
1302114
1302114
1302114
1302115
1302115
1302115
1302115
1302115
1302116
1302116
1302116
1302116
1302116
1302116
1302117
1302117
1302117
1302118
1302118
1302118
1302118
1302118
1302118
1302119
1302119
1302119
1302120
1302120
1302120
1302120
1302121
1302121
1302121
1302121
1302121
1302121
1302122
1302122
1302122
1302122
1302122
1302123
1302123
1302123
1302123
1302123
1302123
1302124
1302124
1302124
1302125
1302125
1302125
1302125
1302125
1302125
1302125
1302126
1302126
1302126
1302126
1302126
1302126
1302127
1302127
1302127
1302127
1302128
1302128
1302128
1302128
1302128
1302128
1302129
1302129
1302129
1302129
1302129
1302129
1302129
1302130
1302130
1302130
1302130
1302130
1302131
1302131
1302131
1302131
1302132
1302132
1302132
1302132
1302132
1302132
1302132
1302133
1302133
1302133
1302133
1302133
1302134
1302134
1302134
1302134
1302135
1302135
1302135
1302135
1302135
1302135
1302136
1302136
1302136
1302136
1302136
1302136
1302137
1302137
1302137
1302137
1302138
1302138
1302138
1302139
1302139
1302139
1302139
1302140
1302140
1302140
1302141
1302141
1302141
1302141
1302142
1302142
1302142
1302142
1302142
1302142
1302143
1302143
1302143
1302143
1302143
1302143
1302144
1302144
1302144
1302144
1302144
1302145
1302145
1302145
1302145
1302145
1302145
1302146
1302146
1302146
1302146
1302147
1302147
1302147
1302148
1302148
1302148
1302149
1302149
1302149
1302150
1302150
1302150
1302150
1302150
1302150
1302151
1302151
1302151
1302151
1302152
1302152
1302152
1302152
1302152
1302152
1302153
1302153
1302153
1302153
1302153
1302153
1302154
1302154
1302154
1302155
1302155
1302155
1302155
1302155
1302155
1302156
1302156
1302156
1302157
1302157
1302157
1302157
1302157
1302157
1302158
1302158
1302158
1302158
1302159
1302159
1302159
1302159
1302159
1302159
1302160
1302160
1302160
1302160
1302161
1302161
1302161
1302161
1302161
1302161
1302162
1302162
1302162
1302163
1302163
1302163
1302163
1302163
1302164
1302164
1302164
1302165
1302165
1302165
1302165
1302165
1302165
1302166
1302166
1302166
1302166
1302166
1302166
1302167
1302167
1302167
1302167
1302167
1302168
1302168
1302168
1302168
1302168
1302168
1302169
1302169
1302169
1302169
1302169
1302169
1302170
1302170
1302170
1302170
1302170
1302171
1302171
1302171
1302172
1302172
1302172
1302172
1302172
1302173
1302173
1302173
1302174
1302174
1302174
1302174
1302174
1302174
1302175
1302175
1302175
1302175
1302175
1302176
1302176
1302176
1302176
1302176
1302176
1302177
1302177
1302177
1302177
1302177
1302178
1302178
1302178
1302178
1302178
1302178
1302179
1302179
1302179
1302180
1302180
1302180
1302180
1302180
1302180
1302181
1302181
1302181
1302181
1302182
1302182
1302182
1302182
1302183
1302183
1302183
1302183
1302183
1302183
1302184
1302184
1302184
1302184
1302184
1302184
1302184
1302185
1302185
1302185
1302185
1302185
1302185
1302186
1302186
1302186
1302187
1302187
1302187
1302187
1302187
1302187
1302188
1302188
1302188
1302188
1302189
1302189
1302189
1302189
1302189
1302189
1302190
1302190
1302190
1302190
1302190
1302190
1302191
1302191
1302191
1302191
1302191
1302191
1302192
1302192
1302192
1302192
1302192
1302192
1302193
1302193
1302193
1302193
1302193
1302193
1302194
1302194
1302194
1302195
1302195
1302195
1302195
1302196
1302196
1302196
1302197
1302197
1302197
1302197
1302197
1302197
1302198
1302198
1302198
1302198
1302198
1302198
1302199
1302199
1302199
1302199
1302199
1302200
1302200
1302200
1302200
1302200
1302200
1302201
1302201
1302201
1302201
1302201
1302201
1302202
1302202
1302202
1302202
1302203
1302203
1302203
1302204
1302204
1302204
1302204
1302204
1302204
1302205
1302205
1302205
1302205
1302206
1302206
1302206
1302206
1302206
1302206
1302207
1302207
1302207
1302207
1302208
1302208
1302208
1302208
1302208
1302208
1302208
1302209
1302209
1302209
1302209
1302209
1302209
1302210
1302210
1302210
1302210
1302210
1302210
1302211
1302211
1302211
1302212
1302212
1302212
1302212
1302212
1302212
1302212
1302213
1302213
1302213
1302214
1302214
1302214
1302214
1302215
1302215
1302215
1302215
1302215
1302215
1302216
1302216
1302216
1302216
1302216
1302216
1302217
1302217
1302217
1302217
1302217
1302217
1302217
1302218
1302218
1302218
1302218
1302218
1302218
1302219
1302219
1302219
1302219
1302220
1302220
1302220
1302220
1302220
1302220
1302221
1302221
1302221
1302221
1302222
1302222
1302222
1302223
1302223
1302223
1302224
1302224
1302224
1302225
1302225
1302225
1302226
1302226
1302226
1302226
1302226
1302227
1302227
1302227
1302227
1302227
1302227
1302228
1302228
1302228
1302228
1302228
1302228
1302229
1302229
1302229
1302229
1302229
1302229
1302230
1302230
1302230
1302231
1302231
1302231
1302232
1302232
1302232
1302232
1302233
1302233
1302233
1302233
1302234
1302234
1302234
1302234
1302235
1302235
1302235
1302235
1302236
1302236
1302236
1302236
1302236
1302236
1302237
1302237
1302237
1302237
1302237
1302237
1302238
1302238
1302238
1302238
1302238
1302238
1302239
1302239
1302239
1302239
1302240
1302240
1302240
1302240
1302240
1302240
1302241
1302241
1302241
1302241
1302241
1302241
1302242
1302242
1302242
1302243
1302243
1302243
1302244
1302244
1302244
1302244
1302245
1302245
1302245
1302245
1302246
1302246
1302246
1302246
1302246
1302247
1302247
1302247
1302247
1302247
1302247
1302248
1302248
1302248
1302248
1302248
1302248
1302249
1302249
1302249
1302249
1302249
1302249
1302250
1302250
1302250
1302251
1302251
1302251
1302252
1302252
1302252
1302253
1302253
1302253
1302254
1302254
1302254
1302254
1302254
1302255
1302255
1302255
1302255
1302255
1302255
1302256
1302256
1302256
1302256
1302256
1302256
1302257
1302257
1302257
1302257
1302258
1302258
1302258
1302258
1302258
1302258
1302259
1302259
1302259
1302259
1302259
1302259
1302260
1302260
1302260
1302260
1302260
1302260
1302261
1302261
1302261
1302261
1302261
1302262
1302262
1302262
1302263
1302263
1302263
1302264
1302264
1302264
1302265
1302265
1302265
1302266
1302266
1302266
1302266
1302266
1302266
1302266
1302267
1302267
1302267
1302267
1302267
1302267
1302268
1302268
1302268
1302268
1302268
1302268
1302269
1302269
1302269
1302269
1302269
1302270
1302270
1302270
1302271
1302271
1302271
1302271
1302272
1302272
1302272
1302273
1302273
1302273
1302274
1302274
1302274
1302274
1302274
1302274
1302275
1302275
1302275
1302275
1302275
1302275
1302276
1302276
1302276
1302276
1302277
1302277
1302277
1302277
1302277
1302277
1302278
1302278
1302278
1302278
1302278
1302278
1302279
1302279
1302279
1302279
1302279
1302279
1302280
1302280
1302280
1302280
1302281
1302281
1302281
1302281
1302282
1302282
1302282
1302282
1302283
1302283
1302283
1302283
1302284
1302284
1302284
1302285
1302285
1302285
1302286
1302286
1302286
1302286
1302286
1302286
1302287
1302287
1302287
1302287
1302287
1302287
1302288
1302288
1302288
1302288
1302288
1302288
1302289
1302289
1302289
1302289
1302289
1302290
1302290
1302290
1302291
1302291
1302291
1302292
1302292
1302292
1302293
1302293
1302293
1302294
1302294
1302294
1302294
1302294
1302295
1302295
1302295
1302295
1302295
1302295
1302296
1302296
1302296
1302296
1302296
1302297
1302297
1302297
1302297
1302297
1302297
1302298
1302298
1302298
1302298
1302299
1302299
1302299
1302299
1302299
1302299
1302300
1302300
1302300
1302300
1302300
1302300
1302301
1302301
1302301
1302301
1302302
1302302
1302302
1302303
1302303
1302303
1302303
1302303
1302304
1302304
1302304
1302305
1302305
1302305
1302305
1302305
1302305
1302306
1302306
1302306
1302306
1302306
1302306
1302307
1302307
1302307
1302307
1302307
1302307
1302307
1302308
1302308
1302308
1302308
1302309
1302309
1302309
1302309
1302309
1302309
1302310
1302310
1302310
1302310
1302311
1302311
1302311
1302311
1302311
1302311
1302312
1302312
1302312
1302313
1302313
1302313
1302313
1302314
1302314
1302314
1302314
1302314
1302314
1302315
1302315
1302315
1302315
1302316
1302316
1302316
1302316
1302316
1302317
1302317
1302317
1302317
1302317
1302317
1302318
1302318
1302318
1302318
1302318
1302318
1302319
1302319
1302319
1302319
1302319
1302320
1302320
1302320
1302320
1302320
1302321
1302321
1302321
1302321
1302321
1302321
1302322
1302322
1302322
1302322
1302322
1302322
1302323
1302323
1302323
1302323
1302323
1302323
1302324
1302324
1302324
1302324
1302324
1302324
1302325
1302325
1302325
1302325
1302325
1302325
1302326
1302326
1302326
1302326
1302326
1302326
1302327
1302327
1302327
1302327
1302327
1302327
1302328
1302328
1302328
1302328
1302328
1302328
1302329
1302329
1302329
1302329
1302330
1302330
1302330
1302330
1302330
1302330
1302331
1302331
1302331
1302331
1302331
1302331
1302331
1302332
1302332
1302332
1302332
1302332
1302332
1302333
1302333
1302333
1302333
1302334
1302334
1302334
1302334
1302335
1302335
1302335
1302335
1302335
1302335
1302336
1302336
1302336
1302337
1302337
1302337
1302337
1302337
1302337
1302338
1302338
1302338
1302338
1302339
1302339
1302339
1302339
1302339
1302339
1302340
1302340
1302340
1302340
1302341
1302341
1302341
1302341
1302341
1302341
1302342
1302342
1302342
1302343
1302343
1302343
1302343
1302343
1302344
1302344
1302344
1302345
1302345
1302345
1302345
1302345
1302346
1302346
1302346
1302346
1302346
1302346
1302347
1302347
1302347
1302347
1302347
1302347
1302348
1302348
1302348
1302348
1302348
1302349
1302349
1302349
1302349
1302349
1302349
1302350
1302350
1302350
1302350
1302350
1302350
1302351
1302351
1302351
1302351
1302351
1302351
1302352
1302352
1302352
1302352
1302352
1302353
1302353
1302353
1302353
1302353
1302353
1302354
1302354
1302354
1302354
1302354
1302354
1302355
1302355
1302355
1302355
1302356
1302356
1302356
1302356
1302356
1302356
1302357
1302357
1302357
1302357
1302358
1302358
1302358
1302358
1302358
1302358
1302359
1302359
1302359
1302359
1302359
1302360
1302360
1302360
1302360
1302360
1302360
1302361
1302361
1302361
1302361
1302361
1302362
1302362
1302362
1302362
1302362
1302362
1302363
1302363
1302363
1302363
1302363
1302363
1302364
1302364
1302364
1302364
1302364
1302365
1302365
1302365
1302365
1302365
1302365
1302365
1302366
1302366
1302366
1302367
1302367
1302367
1302368
1302368
1302368
1302368
1302369
1302369
1302369
1302370
1302370
1302370
1302370
1302370
1302370
1302371
1302371
1302371
1302371
1302371
1302372
1302372
1302372
1302372
1302372
1302372
1302372
1302373
1302373
1302373
1302373
1302373
1302373
1302374
1302374
1302374
1302374
1302374
1302375
1302375
1302375
1302375
1302376
1302376
1302376
1302377
1302377
1302377
1302377
1302377
1302377
1302378
1302378
1302378
1302378
1302379
1302379
1302379
1302379
1302379
1302380
1302380
1302380
1302380
1302380
1302380
1302381
1302381
1302381
1302381
1302382
1302382
1302382
1302382
1302382
1302383
1302383
1302383
1302383
1302383
1302383
1302384
1302384
1302384
1302384
1302384
1302385
1302385
1302385
1302385
1302385
1302385
1302386
1302386
1302386
1302386
1302386
1302386
1302387
1302387
1302387
1302387
1302387
1302387
1302388
1302388
1302388
1302388
1302389
1302389
1302389
1302389
1302389
1302389
1302390
1302390
1302390
1302390
1302390
1302390
1302391
1302391
1302391
1302392
1302392
1302392
1302392
1302392
1302392
1302393
1302393
1302393
1302393
1302394
1302394
1302394
1302394
1302394
1302394
1302395
1302395
1302395
1302395
1302395
1302396
1302396
1302396
1302396
1302396
1302396
1302396
1302397
1302397
1302397
1302397
1302398
1302398
1302398
1302399
1302399
1302399
1302400
1302400
1302400
1302400
1302401
1302401
1302401
1302401
1302402
1302402
1302402
1302402
1302402
1302402
1302403
1302403
1302403
1302403
1302403
1302404
1302404
1302404
1302404
1302404
1302404
1302405
1302405
1302405
1302405
1302405
1302405
1302406
1302406
1302406
1302406
1302406
1302406
1302407
1302407
1302407
1302407
1302407
1302408
1302408
1302408
1302408
1302408
1302408
1302409
1302409
1302409
1302409
1302409
1302409
1302410
1302410
1302410
1302410
1302410
1302410
1302411
1302411
1302411
1302411
1302411
1302411
1302412
1302412
1302412
1302412
1302412
1302412
1302413
1302413
1302413
1302413
1302413
1302414
1302414
1302414
1302414
1302414
1302414
1302415
1302415
1302415
1302415
1302415
1302415
1302416
1302416
1302416
1302416
1302417
1302417
1302417
1302417
1302418
1302418
1302418
1302418
1302418
1302418
1302419
1302419
1302419
1302419
1302420
1302420
1302420
1302420
1302421
1302421
1302421
1302421
1302421
1302421
1302422
1302422
1302422
1302422
1302422
1302422
1302423
1302423
1302423
1302423
1302423
1302423
1302424
1302424
1302424
1302424
1302424
1302424
1302425
1302425
1302425
1302425
1302425
1302425
1302425
1302426
1302426
1302426
1302426
1302426
1302427
1302427
1302427
1302428
1302428
1302428
1302428
1302428
1302428
1302429
1302429
1302429
1302430
1302430
1302430
1302430
1302431
1302431
1302431
1302431
1302432
1302432
1302432
1302432
1302432
1302432
1302433
1302433
1302433
1302433
1302433
1302433
1302434
1302434
1302434
1302434
1302434
1302435
1302435
1302435
1302435
1302436
1302436
1302436
1302436
1302436
1302436
1302437
1302437
1302437
1302438
1302438
1302438
1302438
1302438
1302438
1302439
1302439
1302439
1302439
1302439
1302439
1302440
1302440
1302440
1302440
1302440
1302440
1302441
1302441
1302441
1302441
1302441
1302441
1302442
1302442
1302442
1302442
1302442
1302442
1302443
1302443
1302443
1302443
1302443
1302444
1302444
1302444
1302445
1302445
1302445
1302445
1302445
1302445
1302446
1302446
1302446
1302447
1302447
1302447
1302447
1302447
1302447
1302448
1302448
1302448
1302448
1302448
1302449
1302449
1302449
1302449
1302450
1302450
1302450
1302450
1302450
1302450
1302451
1302451
1302451
1302451
1302451
1302451
1302452
1302452
1302452
1302452
1302453
1302453
1302453
1302453
1302454
1302454
1302454
1302455
1302455
1302455
1302455
1302455
1302455
1302455
1302456
1302456
1302456
1302456
1302456
1302456
1302457
1302457
1302457
1302457
1302457
1302457
1302458
1302458
1302458
1302458
1302459
1302459
1302459
1302460
1302460
1302460
1302460
1302460
1302460
1302461
1302461
1302461
1302462
1302462
1302462
1302462
1302462
1302463
1302463
1302463
1302463
1302463
1302463
1302464
1302464
1302464
1302464
1302464
1302464
1302465
1302465
1302465
1302465
1302465
1302465
1302466
1302466
1302466
1302466
1302466
1302467
1302467
1302467
1302468
1302468
1302468
1302468
1302468
1302468
1302469
1302469
1302469
1302470
1302470
1302470
1302470
1302470
1302470
1302471
1302471
1302471
1302471
1302472
1302472
1302472
1302472
1302472
1302472
1302473
1302473
1302473
1302473
1302474
1302474
1302474
1302474
1302474
1302474
1302475
1302475
1302475
1302475
1302475
1302475
1302476
1302476
1302476
1302476
1302477
1302477
1302477
1302477
1302477
1302477
1302478
1302478
1302478
1302479
1302479
1302479
1302479
1302479
1302479
1302479
1302480
1302480
1302480
1302480
1302480
1302480
1302481
1302481
1302481
1302481
1302482
1302482
1302482
1302482
1302482
1302482
1302483
1302483
1302483
1302483
1302483
1302484
1302484
1302484
1302485
1302485
1302485
1302485
1302485
1302486
1302486
1302486
1302487
1302487
1302487
1302487
1302487
1302487
1302488
1302488
1302488
1302488
1302488
1302489
1302489
1302489
1302489
1302489
1302489
1302490
1302490
1302490
1302490
1302490
1302491
1302491
1302491
1302491
1302491
1302491
1302492
1302492
1302492
1302492
1302493
1302493
1302493
1302493
1302493
1302494
1302494
1302494
1302494
1302494
1302494
1302495
1302495
1302495
1302496
1302496
1302496
1302496
1302497
1302497
1302497
1302498
1302498
1302498
1302499
1302499
1302499
1302499
1302499
1302499
1302500
1302500
1302500
1302500
1302500
1302500
1302501
1302501
1302501
1302501
1302501
1302501
1302502
1302502
1302502
1302502
1302503
1302503
1302503
1302503
1302504
1302504
1302504
1302505
1302505
1302505
1302506
1302506
1302506
1302507
1302507
1302507
1302507
1302507
1302507
1302508
1302508
1302508
1302508
1302508
1302508
1302509
1302509
1302509
1302509
1302509
1302509
1302510
1302510
1302510
1302510
1302510
1302511
1302511
1302511
1302511
1302511
1302511
1302512
1302512
1302512
1302512
1302512
1302512
1302513
1302513
1302513
1302513
1302513
1302514
1302514
1302514
1302514
1302514
1302514
1302515
1302515
1302515
1302515
1302516
1302516
1302516
1302516
1302517
1302517
1302517
1302518
1302518
1302518
1302519
1302519
1302519
1302519
1302519
1302519
1302520
1302520
1302520
1302520
1302521
1302521
1302521
1302521
1302521
1302521
1302522
1302522
1302522
1302522
1302523
1302523
1302523
1302524
1302524
1302524
1302525
1302525
1302525
1302526
1302526
1302526
1302527
1302527
1302527
1302527
1302527
1302527
1302528
1302528
1302528
1302528
1302528
1302528
1302529
1302529
1302529
1302529
1302530
1302530
1302530
1302530
1302531
1302531
1302531
1302532
1302532
1302532
1302532
1302533
1302533
1302533
1302533
1302534
1302534
1302534
1302534
1302534
1302534
1302535
1302535
1302535
1302535
1302535
1302535
1302536
1302536
1302536
1302536
1302536
1302537
1302537
1302537
1302537
1302537
1302537
1302538
1302538
1302538
1302538
1302538
1302538
1302539
1302539
1302539
1302540
1302540
1302540
1302540
1302540
1302540
1302541
1302541
1302541
1302542
1302542
1302542
1302543
1302543
1302543
1302543
1302543
1302543
1302544
1302544
1302544
1302544
1302544
1302544
1302545
1302545
1302545
1302545
1302545
1302545
1302546
1302546
1302546
1302546
1302546
1302547
1302547
1302547
1302547
1302547
1302547
1302548
1302548
1302548
1302549
1302549
1302549
1302549
1302549
1302549
1302550
1302550
1302550
1302550
1302550
1302551
1302551
1302551
1302551
1302552
1302552
1302552
1302552
1302552
1302552
1302553
1302553
1302553
1302553
1302553
1302553
1302553
1302554
1302554
1302554
1302554
1302554
1302554
1302555
1302555
1302555
1302555
1302556
1302556
1302556
1302556
1302556
1302556
1302557
1302557
1302557
1302557
1302557
1302557
1302558
1302558
1302558
1302558
1302559
1302559
1302559
1302560
1302560
1302560
1302560
1302561
1302561
1302561
1302562
1302562
1302562
1302562
1302562
1302562
1302563
1302563
1302563
1302563
1302564
1302564
1302564
1302564
1302564
1302564
1302564
1302565
1302565
1302565
1302565
1302565
1302565
1302566
1302566
1302566
1302566
1302566
1302567
1302567
1302567
1302567
1302567
1302567
1302568
1302568
1302568
1302568
1302568
1302568
1302568
1302569
1302569
1302569
1302569
1302570
1302570
1302570
1302570
1302570
1302571
1302571
1302571
1302571
1302571
1302572
1302572
1302572
1302572
1302572
1302572
1302573
1302573
1302573
1302573
1302573
1302573
1302574
1302574
1302574
1302574
1302574
1302574
1302575
1302575
1302575
1302576
1302576
1302576
1302577
1302577
1302577
1302577
1302578
1302578
1302578
1302579
1302579
1302579
1302579
1302579
1302579
1302580
1302580
1302580
1302580
1302581
1302581
1302581
1302581
1302582
1302582
1302582
1302582
1302582
1302582
1302583
1302583
1302583
1302584
1302584
1302584
1302584
1302584
1302585
1302585
1302585
1302586
1302586
1302586
1302586
1302587
1302587
1302587
1302587
1302587
1302587
1302588
1302588
1302588
1302588
1302588
1302588
1302589
1302589
1302589
1302589
1302590
1302590
1302590
1302590
1302590
1302590
1302591
1302591
1302591
1302591
1302591
1302591
1302591
1302592
1302592
1302592
1302592
1302592
1302593
1302593
1302593
1302593
1302594
1302594
1302594
1302594
1302594
1302594
1302594
1302595
1302595
1302595
1302595
1302595
1302596
1302596
1302596
1302597
1302597
1302597
1302598
1302598
1302598
1302599
1302599
1302599
1302600
1302600
1302600
1302601
1302601
1302601
1302602
1302602
1302602
1302602
1302603
1302603
1302603
1302604
1302604
1302604
1302605
1302605
1302605
1302606
1302606
1302606
1302607
1302607
1302607
1302608
1302608
1302608
1302609
1302609
1302609
1302610
1302610
1302610
1302611
1302611
1302611
1302612
1302612
1302612
1302612
1302613
1302613
1302613
1302614
1302614
1302614
1302615
1302615
1302615
1302616
1302616
1302616
1302617
1302617
1302617
1302618
1302618
1302618
1302619
1302619
1302619
1302620
1302620
1302620
1302621
1302621
1302621
1302622
1302622
1302622
1302623
1302623
1302623
1302623
1302624
1302624
1302624
1302625
1302625
1302626
1302626
1302626
1302627
1302627
1302627
1302628
1302628
1302628
1302629
1302629
1302629
1302629
1302630
1302630
1302630
1302631
1302631
1302632
1302632
1302632
1302633
1302633
1302633
1302634
1302634
1302634
1302635
1302635
1302635
1302636
1302636
1302636
1302637
1302637
1302637
1302638
1302638
1302638
1302639
1302639
1302639
1302640
1302640
1302640
1302641
1302641
1302641
1302642
1302642
1302642
1302643
1302643
1302643
1302644
1302644
1302644
1302645
1302645
1302645
1302646
1302646
1302646
1302647
1302647
1302647
1302648
1302648
1302648
1302649
1302649
1302649
1302650
1302650
1302650
1302650
1302651
1302651
1302651
1302652
1302652
1302652
1302653
1302653
1302653
1302654
1302654
1302654
1302655
1302655
1302655
1302656
1302656
1302656
1302657
1302657
1302657
1302657
1302658
1302658
1302658
1302659
1302659
1302659
1302660
1302660
1302660
1302660