/*--------------------------------*- C++ -*----------------------------------*\
  =========                 |
  \\      /  F ield         | OpenFOAM: The Open Source CFD Toolbox
   \\    /   O peration     | Website:  https://openfoam.org
    \\  /    A nd           | Version:  10
     \\/     M anipulation  |
\*---------------------------------------------------------------------------*/
FoamFile
{
    format      ascii;
    class       dictionary;
    object      createBafflesDict;
}
// * * * * * * * * * * * * * * * * * * * * * * * * * * * * * * * * * * * * * //

internalFacesOnly true;

fields true;

baffles
{
    baffleFaces
    {
        type        faceZone;
        zoneName    baffleFaces;

        owner
        {
            name        baffle0;
            type        wall;

            patchFields
            {
                k
                {
                    type        kqRWallFunction;
                    value       uniform 0;
                }
                nut
                {
                    type        nutUSpaldingWallFunction;
                    value       uniform 0;
                }

                p
                {
                    type        zeroGradient;
                }

                U
                {
                    type        noSlip;
                }
            }
        }

        neighbour
        {
            name        baffle1;
            type        wall;

            patchFields
            {
                $../../owner/patchFields;
            }
        }
    }
}

// ************************************************************************* //
