/*--------------------------------*- C++ -*----------------------------------*\
  =========                 |
  \\      /  F ield         | OpenFOAM: The Open Source CFD Toolbox
   \\    /   O peration     | Website:  https://openfoam.org
    \\  /    A nd           | Version:  10
     \\/     M anipulation  |
\*---------------------------------------------------------------------------*/
FoamFile
{
    format      ascii;
    class       dictionary;
    object      topoSetDict;
}

// * * * * * * * * * * * * * * * * * * * * * * * * * * * * * * * * * * * * * //

actions
(
    {
        name    baffleFaceSet;
        type    faceSet;
        action  new;
        source  boxToFace;
        box     (0.1 0 -0.00001)(0.3 0.07 0.0001);
    }

    {
        name    baffleFaces;
        type    faceZoneSet;
        action  new;
        source  setToFaceZone;
        faceSet baffleFaceSet;
    }
);

// ************************************************************************* //
