/*--------------------------------*- C++ -*----------------------------------*\
  =========                 |
  \\      /  F ield         | OpenFOAM: The Open Source CFD Toolbox
   \\    /   O peration     | Website:  https://openfoam.org
    \\  /    A nd           | Version:  10
     \\/     M anipulation  |
\*---------------------------------------------------------------------------*/
FoamFile
{
    format      ascii;
    class       volScalarField;
    location    "0";
    object      nuTilda;
}
// * * * * * * * * * * * * * * * * * * * * * * * * * * * * * * * * * * * * * //

dimensions      [0 2 -1 0 0 0 0];

internalField   uniform 0;

boundaryField
{
    shield
    {
        type            fixedValue;
        value           uniform 0;
    }
    mouth
    {
        type            inletOutlet;
        inletValue      uniform 0.0001;
        value           uniform 0.0001;
    }
    wall
    {
        type            fixedValue;
        value           uniform 0;
    }
    atmos
    {
        type            fixedValue;
        value           uniform 0.0001;
    }
    oldInternalFaces
    {
        type            internal;
    }
}


// ************************************************************************* //
