/*--------------------------------*- C++ -*----------------------------------*\
  =========                 |
  \\      /  F ield         | OpenFOAM: The Open Source CFD Toolbox
   \\    /   O peration     | Website:  https://openfoam.org
    \\  /    A nd           | Version:  10
     \\/     M anipulation  |
\*---------------------------------------------------------------------------*/
FoamFile
{
    format      ascii;
    class       volVectorField;
    location    "0";
    object      U;
}
// * * * * * * * * * * * * * * * * * * * * * * * * * * * * * * * * * * * * * //

dimensions      [0 1 -1 0 0 0 0];

internalField   uniform (0 0 0);

boundaryField
{
    empty
    {
        type            empty;
    }
    atmos
    {
        type            zeroGradient;
    }
    faceShield
    {
        type            noSlip;
    }
    solid
    {
        type            noSlip;
    }
    mouth
    {
        type            turbulentInlet;
        fluctuationScale (0.2 0.01 0.01);
        referenceField  uniform (10 0 0);
        alpha           0.1;
        value           uniform (10 0 0);
    }
    nose
    {
        type            flowRateOutletVelocity;
        massFlowRate    0.000325; 
        rhoOutlet       1.3;
        rho             rho;
    }
}


// ************************************************************************* //
