/*--------------------------------*- C++ -*----------------------------------*\
  =========                 |
  \\      /  F ield         | OpenFOAM: The Open Source CFD Toolbox
   \\    /   O peration     | Website:  https://openfoam.org
    \\  /    A nd           | Version:  10
     \\/     M anipulation  |
\*---------------------------------------------------------------------------*/
FoamFile
{
    format      ascii;
    class       dictionary;
    location    "constant";
    object      cloudProperties;
}
// * * * * * * * * * * * * * * * * * * * * * * * * * * * * * * * * * * * * * //

type                            collidingCloud;

solution
{
    coupled                     false;
    transient                   yes;
    cellValueSourceCorrection   off;
    maxCo                       0.5;

    sourceTerms
    {
        schemes
        {
        }
    }

    interpolationSchemes
    {
        rho                     cell;
        U                       cellPoint;
        mu                      cell;
    }

    integrationSchemes
    {
        U                       Euler;
    }
}


constantProperties
{
    rho0                        1;
    youngsModulus               6e8;
    poissonsRatio               0.35;
}


subModels
{
    particleForces
    {
        sphereDrag;
        gravity;
    }

    injectionModels                                 // particles' injections
    {
        inletParticles
        {
            type                patchInjection;
            patchName           mouth;
            parcelBasisType     fixed;
            SOI                 0;                  // injection start time (+1.0 [secs])
            duration            1;                  // time [seconds] of injecting parcels
            parcelsPerSecond    2;                  // modify to increase particle density
            U0                  (0 0 10);           // injected particle's initial velocity
            nParticle           1;                  // don't modify (no independent locations)
            massTotal           0.1;
            flowRateProfile     uniform 1;


            sizeDistribution
            {
                type            fixedValue;
                fixedValueDistribution      
                {
                    value       0.0001;
                }
            }
        }

    }

    // turn off other modelling
    dispersionModel             none;
    heatTransferModel           none;
    patchInteractionModel       none;
    surfaceFilmModel            none;
    stochasticCollisionModel    none;
    collisionModel              none;
}


cloudFunctions
{}


// ************************************************************************* //
